
     RDKit          3D

 87 93  0  0  0  0  0  0  0  0999 V2000
  -12.4361   -0.7573   -1.9704 C   0  0  0  0  0  0  0  0  0  0  0  0
  -12.2257   -1.6577   -0.7537 C   0  0  0  0  0  0  0  0  0  0  0  0
  -12.1504   -0.8472    0.5551 C   0  0  0  0  0  0  0  0  0  0  0  0
  -12.0531   -1.7708    1.7734 C   0  0  0  0  0  0  0  0  0  0  0  0
  -11.0258    0.0976    0.5379 N   0  0  0  0  0  0  0  0  0  0  0  0
  -11.1657    1.4062    0.6804 N   0  0  0  0  0  0  0  0  0  0  0  0
   -9.9217    1.9312    0.6423 C   0  0  0  0  0  0  0  0  0  0  0  0
   -8.9813    0.9748    0.4738 N   0  0  0  0  0  0  0  0  0  0  0  0
   -7.5513    1.1467    0.4162 C   0  0  0  0  0  0  0  0  0  0  0  0
   -6.9360    2.1932    1.1243 C   0  0  0  0  0  0  0  0  0  0  0  0
   -5.5493    2.3570    1.0853 C   0  0  0  0  0  0  0  0  0  0  0  0
   -4.7470    1.4783    0.3392 C   0  0  0  0  0  0  0  0  0  0  0  0
   -3.3119    1.6199    0.3318 N   0  0  0  0  0  0  0  0  0  0  0  0
   -2.5600    1.6215   -0.9291 C   0  0  0  0  0  0  0  0  0  0  0  0
   -1.3311    0.7226   -0.7957 C   0  0  0  0  0  0  0  0  0  0  0  0
   -0.5893    1.0621    0.4261 N   0  0  0  0  0  0  0  0  0  0  0  0
    0.8516    1.0029    0.4364 C   0  0  0  0  0  0  0  0  0  0  0  0
    1.5972    1.7253   -0.5095 C   0  0  0  0  0  0  0  0  0  0  0  0
    2.9952    1.6899   -0.4875 C   0  0  0  0  0  0  0  0  0  0  0  0
    3.6731    0.9479    0.4860 C   0  0  0  0  0  0  0  0  0  0  0  0
    5.0760    0.9713    0.4887 O   0  0  0  0  0  0  0  0  0  0  0  0
    5.8879    0.3308    1.4702 C   0  0  0  0  0  0  0  0  0  0  0  0
    7.3639    0.6414    1.2005 C   0  0  1  0  0  0  0  0  0  0  0  0
    8.2731    0.0011    2.2140 C   0  0  0  0  0  0  0  0  0  0  0  0
    8.7879   -1.1320    1.5962 O   0  0  0  0  0  0  0  0  0  0  0  0
    8.6958   -0.8862    0.2065 C   0  0  2  0  0  0  0  0  0  0  0  0
    8.2306   -2.1922   -0.4655 C   0  0  0  0  0  0  0  0  0  0  0  0
    8.0456   -2.0290   -1.9062 N   0  0  0  0  0  0  0  0  0  0  0  0
    8.9384   -2.3043   -2.8707 C   0  0  0  0  0  0  0  0  0  0  0  0
    8.4432   -2.0121   -4.0886 N   0  0  0  0  0  0  0  0  0  0  0  0
    7.2071   -1.5494   -3.7969 C   0  0  0  0  0  0  0  0  0  0  0  0
    6.9538   -1.5513   -2.4731 N   0  0  0  0  0  0  0  0  0  0  0  0
   10.0785   -0.4836   -0.3266 C   0  0  0  0  0  0  0  0  0  0  0  0
   11.2114   -1.1239    0.2235 C   0  0  0  0  0  0  0  0  0  0  0  0
   12.4984   -0.8321   -0.2294 C   0  0  0  0  0  0  0  0  0  0  0  0
   12.6857    0.0932   -1.2542 C   0  0  0  0  0  0  0  0  0  0  0  0
   14.3046    0.4503   -1.8282 Cl  0  0  0  0  0  0  0  0  0  0  0  0
   11.5830    0.7204   -1.8350 C   0  0  0  0  0  0  0  0  0  0  0  0
   10.2829    0.4397   -1.3933 C   0  0  0  0  0  0  0  0  0  0  0  0
    8.9760    1.2598   -2.2477 Cl  0  0  0  0  0  0  0  0  0  0  0  0
    7.7332    0.1193   -0.0397 O   0  0  0  0  0  0  0  0  0  0  0  0
    2.9292    0.2166    1.4313 C   0  0  0  0  0  0  0  0  0  0  0  0
    1.5322    0.2439    1.4049 C   0  0  0  0  0  0  0  0  0  0  0  0
   -1.3343    1.1004    1.6922 C   0  0  0  0  0  0  0  0  0  0  0  0
   -2.5822    1.9745    1.5538 C   0  0  0  0  0  0  0  0  0  0  0  0
   -5.3617    0.4404   -0.3797 C   0  0  0  0  0  0  0  0  0  0  0  0
   -6.7494    0.2784   -0.3464 C   0  0  0  0  0  0  0  0  0  0  0  0
   -9.7080   -0.1592    0.4205 C   0  0  0  0  0  0  0  0  0  0  0  0
   -9.2167   -1.3162    0.3193 O   0  0  0  0  0  0  0  0  0  0  0  0
  -12.5205   -1.3831   -2.8841 H   0  0  0  0  0  0  0  0  0  0  0  0
  -13.3719   -0.1687   -1.8549 H   0  0  0  0  0  0  0  0  0  0  0  0
  -11.5773   -0.0652   -2.0982 H   0  0  0  0  0  0  0  0  0  0  0  0
  -13.0778   -2.3696   -0.6954 H   0  0  0  0  0  0  0  0  0  0  0  0
  -11.3007   -2.2550   -0.8963 H   0  0  0  0  0  0  0  0  0  0  0  0
  -13.0986   -0.2725    0.6567 H   0  0  0  0  0  0  0  0  0  0  0  0
  -12.9644   -2.4015    1.8482 H   0  0  0  0  0  0  0  0  0  0  0  0
  -11.9713   -1.1642    2.7006 H   0  0  0  0  0  0  0  0  0  0  0  0
  -11.1669   -2.4355    1.6997 H   0  0  0  0  0  0  0  0  0  0  0  0
   -9.7155    2.9901    0.7249 H   0  0  0  0  0  0  0  0  0  0  0  0
   -7.5263    2.8745    1.7241 H   0  0  0  0  0  0  0  0  0  0  0  0
   -5.1021    3.1739    1.6371 H   0  0  0  0  0  0  0  0  0  0  0  0
   -3.1828    1.2720   -1.7802 H   0  0  0  0  0  0  0  0  0  0  0  0
   -2.2343    2.6599   -1.1556 H   0  0  0  0  0  0  0  0  0  0  0  0
   -1.6562   -0.3386   -0.7405 H   0  0  0  0  0  0  0  0  0  0  0  0
   -0.6987    0.8357   -1.7026 H   0  0  0  0  0  0  0  0  0  0  0  0
    1.0980    2.3350   -1.2511 H   0  0  0  0  0  0  0  0  0  0  0  0
    3.5567    2.2571   -1.2193 H   0  0  0  0  0  0  0  0  0  0  0  0
    5.7216   -0.7685    1.4320 H   0  0  0  0  0  0  0  0  0  0  0  0
    5.6118    0.7106    2.4787 H   0  0  0  0  0  0  0  0  0  0  0  0
    7.5137    1.7436    1.1965 H   0  0  0  0  0  0  0  0  0  0  0  0
    9.1098    0.6871    2.4733 H   0  0  0  0  0  0  0  0  0  0  0  0
    7.7452   -0.2851    3.1496 H   0  0  0  0  0  0  0  0  0  0  0  0
    7.2666   -2.5128   -0.0131 H   0  0  0  0  0  0  0  0  0  0  0  0
    8.9655   -3.0039   -0.2694 H   0  0  0  0  0  0  0  0  0  0  0  0
    9.9314   -2.6980   -2.6951 H   0  0  0  0  0  0  0  0  0  0  0  0
    6.5024   -1.2084   -4.5436 H   0  0  0  0  0  0  0  0  0  0  0  0
   11.1018   -1.8609    1.0098 H   0  0  0  0  0  0  0  0  0  0  0  0
   13.3503   -1.3309    0.2166 H   0  0  0  0  0  0  0  0  0  0  0  0
   11.7372    1.4232   -2.6443 H   0  0  0  0  0  0  0  0  0  0  0  0
    3.4203   -0.3736    2.1925 H   0  0  0  0  0  0  0  0  0  0  0  0
    0.9833   -0.3322    2.1397 H   0  0  0  0  0  0  0  0  0  0  0  0
   -0.7028    1.5200    2.5064 H   0  0  0  0  0  0  0  0  0  0  0  0
   -1.6329    0.0663    1.9719 H   0  0  0  0  0  0  0  0  0  0  0  0
   -3.2146    1.8232    2.4554 H   0  0  0  0  0  0  0  0  0  0  0  0
   -2.2879    3.0453    1.5064 H   0  0  0  0  0  0  0  0  0  0  0  0
   -4.7658   -0.2589   -0.9516 H   0  0  0  0  0  0  0  0  0  0  0  0
   -7.1934   -0.5188   -0.9279 H   0  0  0  0  0  0  0  0  0  0  0  0
  1  2  1  0
  2  3  1  0
  3  4  1  0
  3  5  1  0
  5  6  1  0
  6  7  2  0
  7  8  1  0
  8  9  1  0
  9 10  2  0
 10 11  1  0
 11 12  2  0
 12 13  1  0
 13 14  1  0
 14 15  1  0
 15 16  1  0
 16 17  1  0
 17 18  2  0
 18 19  1  0
 19 20  2  0
 20 21  1  0
 21 22  1  0
 22 23  1  0
 23 24  1  0
 24 25  1  0
 25 26  1  0
 26 27  1  6
 27 28  1  0
 28 29  1  0
 29 30  2  0
 30 31  1  0
 31 32  2  0
 26 33  1  0
 33 34  2  0
 34 35  1  0
 35 36  2  0
 36 37  1  0
 36 38  1  0
 38 39  2  0
 39 40  1  0
 26 41  1  0
 20 42  1  0
 42 43  2  0
 16 44  1  0
 44 45  1  0
 12 46  1  0
 46 47  2  0
  8 48  1  0
 48 49  2  0
 48  5  1  0
 47  9  1  0
 45 13  1  0
 43 17  1  0
 41 23  1  0
 32 28  1  0
 39 33  1  0
  1 50  1  0
  1 51  1  0
  1 52  1  0
  2 53  1  0
  2 54  1  0
  3 55  1  0
  4 56  1  0
  4 57  1  0
  4 58  1  0
  7 59  1  0
 10 60  1  0
 11 61  1  0
 14 62  1  0
 14 63  1  0
 15 64  1  0
 15 65  1  0
 18 66  1  0
 19 67  1  0
 22 68  1  0
 22 69  1  0
 23 70  1  6
 24 71  1  0
 24 72  1  0
 27 73  1  0
 27 74  1  0
 29 75  1  0
 31 76  1  0
 34 77  1  0
 35 78  1  0
 38 79  1  0
 42 80  1  0
 43 81  1  0
 44 82  1  0
 44 83  1  0
 45 84  1  0
 45 85  1  0
 46 86  1  0
 47 87  1  0
M  END
$$$$
